Version 4
SHEET 1 2120 2120
WIRE 100 228 292 228
WIRE 372 228 484 228
WIRE 564 228 676 228
WIRE 740 228 740 356
WIRE 740 356 484 356
WIRE 484 436 100 436
WIRE 100 436 100 484
WIRE 100 308 100 484
FLAG 100 228 VIN
FLAG 740 228 VOUT
SYMBOL voltage 100 212 R0
SYMATTR InstName V1
SYMATTR Value AC 1
SYMBOL res 388 212 R90
SYMATTR InstName R1
SYMATTR Value 10
SYMBOL ind 580 212 R90
SYMATTR InstName L1
SYMATTR Value 1m
SYMBOL cap 740 212 R90
SYMATTR InstName C1
SYMATTR Value 1u
SYMBOL res 468 340 R0
SYMATTR InstName R2
SYMATTR Value 100
FLAG 100 484 0
